// Generated for: spectre
// Generated on: Oct 28 19:43:11 2022
// Design library name: res_inverter_short
// Design cell name: inverter_1_1_man_tb
// Design view name: schematic
simulator lang=spectre
global 0 vdd!
