simulator lang=spectre
include "NMOS_VTL.scs"
